[General]
cmdenv-express-mode = true
cmdenv-autoflush = true
cmdenv-status-frequency = 1s
**.cmdenv-log-level = info

image-path = ../../images

network = RSUExampleScenario

##########################################################
#            Simulation parameters                       #
##########################################################
debug-on-errors = true
print-undisposed = true

sim-time-limit = 200s

**.scalar-recording = true
**.vector-recording = true

*.playgroundSizeX = 2500m
*.playgroundSizeY = 2500m
*.playgroundSizeZ = 50m


##########################################################
# Annotation parameters                                  #
##########################################################
*.annotations.draw = true

##########################################################
# Obstacle parameters                                    #
##########################################################
*.obstacles.obstacles = xmldoc("config.xml", "//AnalogueModel[@type='SimpleObstacleShadowing']/obstacles")

##########################################################
#            TraCIScenarioManager parameters             #
##########################################################
*.manager.updateInterval = 1s
*.manager.host = "localhost"
*.manager.port = 9999
*.manager.autoShutdown = true
*.manager.launchConfig = xmldoc("erlangen.launchd.xml")
*.manager.trafficLightModuleType = "org.car2x.veins.nodes.TrafficLight"

*.tls[*].mobility.x = 0
*.tls[*].mobility.y = 0
*.tls[*].mobility.z = 3

*.tls[*].applType = "org.car2x.veins.modules.application.traci.TraCIDemoTrafficLightApp"
*.tls[*].logicType ="org.car2x.veins.modules.world.traci.trafficLight.logics.TraCITrafficLightSimpleLogic"


##########################################################
#                       RSU SETTINGS                     #
#                                                        #
#                                                        #
##########################################################
*.rsu[0].mobility.x = 2000
*.rsu[0].mobility.y = 2000
*.rsu[0].mobility.z = 3

*.rsu[*].applType = "TraCIDemoRSU11p"
*.rsu[*].appl.headerLength = 80 bit
*.rsu[*].appl.sendBeacons = false
*.rsu[*].appl.dataOnSch = false
*.rsu[*].appl.beaconInterval = 1s
*.rsu[*].appl.beaconUserPriority = 7
*.rsu[*].appl.dataUserPriority = 5
*.rsu[*].nic.phy80211p.antennaOffsetZ = 0 m

##########################################################
#            11p specific parameters                     #
#                                                        #
#                    NIC-Settings                        #
##########################################################
*.connectionManager.sendDirect = true
*.connectionManager.maxInterfDist = 2600m
*.connectionManager.drawMaxIntfDist = false

*.**.nic.mac1609_4.useServiceChannel = false

*.**.nic.mac1609_4.txPower = 20mW
*.**.nic.mac1609_4.bitrate = 6Mbps
*.**.nic.phy80211p.minPowerLevel = -110dBm

*.**.nic.phy80211p.useNoiseFloor = true
*.**.nic.phy80211p.noiseFloor = -98dBm

*.**.nic.phy80211p.decider = xmldoc("config.xml")
*.**.nic.phy80211p.analogueModels = xmldoc("config.xml")
*.**.nic.phy80211p.usePropagationDelay = true

*.**.nic.phy80211p.antenna = xmldoc("antenna.xml", "/root/Antenna[@id='monopole']")
*.node[*].nic.phy80211p.antennaOffsetY = 0 m
*.node[*].nic.phy80211p.antennaOffsetZ = 1.895 m

##########################################################
#                      App Layer                         #
##########################################################
*.node[*].applType = "TraCIDemo11p"
*.node[*].appl.headerLength = 80 bit
*.node[*].appl.sendBeacons = false
*.node[*].appl.dataOnSch = false
*.node[*].appl.beaconInterval = 1s

##########################################################
#                      Mobility                          #
##########################################################
*.node[*].veinsmobility.x = 0
*.node[*].veinsmobility.y = 0
*.node[*].veinsmobility.z = 0
*.node[*].veinsmobility.setHostSpeed = false
*.node[*0].veinsmobility.accidentCount = 1
*.node[*0].veinsmobility.accidentStart = 73s
*.node[*0].veinsmobility.accidentDuration = 50s

[Config Default]

[Config WithBeaconing]
*.rsu[*].appl.sendBeacons = true
*.node[*].appl.sendBeacons = true

[Config WithChannelSwitching]
*.**.nic.mac1609_4.useServiceChannel = true
*.node[*].appl.dataOnSch = true
*.rsu[*].appl.dataOnSch = true

[Config PQCPlatoon]
description = "4-vehicle platoon (SUMO ids 0..3) with PQC size and processing overhead"
sim-time-limit = 60s

*.manager.updateInterval = 0.1s
*.manager.launchConfig = xmldoc("platoon.launchd.xml")

*.node[*].applType = "MyVeinsApp"
*.node[*].appl.sendBeacons = false
*.node[*].appl.dataOnSch = false
*.node[*].appl.headerLength = 80 bit
*.node[*].appl.beaconInterval = 0.1s

# Platoon + PQC parameters
*.node[*].appl.platoonLeaderId = 0
*.node[*].appl.platoonBeaconPsid = 77
*.node[*].appl.platoonTargetGap = 15
*.node[*].appl.platoonCruiseSpeed = 25
*.node[*].appl.followerControllerGain = 0.35
*.node[*].appl.followerControlHorizon = 0.2s

*.node[*].appl.leaderBeaconInterval = 0.1s
*.node[*].appl.leaderBrakeTime = 20s
*.node[*].appl.leaderBrakeDuration = 2s
*.node[*].appl.leaderBrakeTargetSpeed = 0

*.node[*].appl.pqcSignatureBytes = 2420
*.node[*].appl.pqcPublicKeyBytes = 1312
*.node[*].appl.pqcSignDelay = 2ms
*.node[*].appl.pqcVerifyDelay = 5ms
*.node[*].appl.pqcDelayJitter = 1ms
*.node[*].appl.randomizePqcDelay = true
*.node[*].appl.mac80211pMtuBytes    = 1500
*.node[*].appl.mac80211pBitrateKbps = 6000
*.node[*].appl.logFilePrefix        = "pqc"

[Config ClassicPlatoon]
description = "4-vehicle platoon with classic ECDSA P-256 overhead — baseline for PQC comparison"
sim-time-limit = 60s

*.manager.updateInterval = 0.1s
*.manager.launchConfig = xmldoc("platoon.launchd.xml")

*.node[*].applType = "MyVeinsApp"
*.node[*].appl.sendBeacons = false
*.node[*].appl.dataOnSch = false
*.node[*].appl.headerLength = 80 bit
*.node[*].appl.beaconInterval = 0.1s

*.node[*].appl.platoonLeaderId = 0
*.node[*].appl.platoonBeaconPsid = 77
*.node[*].appl.platoonTargetGap = 15
*.node[*].appl.platoonCruiseSpeed = 25
*.node[*].appl.followerControllerGain = 0.35
*.node[*].appl.followerControlHorizon = 0.2s

*.node[*].appl.leaderBeaconInterval = 0.1s
*.node[*].appl.leaderBrakeTime = 20s
*.node[*].appl.leaderBrakeDuration = 2s
*.node[*].appl.leaderBrakeTargetSpeed = 0

# ECDSA P-256 (classic): 64B assinatura + 64B chave pública
*.node[*].appl.pqcSignatureBytes = 64
*.node[*].appl.pqcPublicKeyBytes = 64
*.node[*].appl.pqcSignDelay = 0.1ms
*.node[*].appl.pqcVerifyDelay = 0.2ms
*.node[*].appl.pqcDelayJitter = 0.05ms
*.node[*].appl.randomizePqcDelay = true
*.node[*].appl.mac80211pMtuBytes    = 1500
*.node[*].appl.mac80211pBitrateKbps = 6000
*.node[*].appl.logFilePrefix        = "classic"
